Version 4.1
SHEET 1 1528 680
WIRE 1184 -48 80 -48
WIRE 1168 0 128 0
WIRE 128 96 128 0
WIRE 144 96 128 96
WIRE 544 96 304 96
WIRE 944 96 704 96
WIRE 1184 96 1184 -48
WIRE 1184 96 1104 96
WIRE 1264 96 1184 96
WIRE 80 128 80 -48
WIRE 144 128 80 128
WIRE 544 128 304 128
WIRE 944 128 704 128
WIRE 1168 128 1168 0
WIRE 1168 128 1104 128
WIRE 1200 128 1168 128
WIRE 224 224 224 176
WIRE 624 224 624 176
WIRE 1024 224 1024 176
FLAG 224 48 Vdd
FLAG 624 48 Vdd
FLAG 1024 48 Vdd
FLAG 624 304 0
FLAG 1024 304 0
FLAG 224 304 0
FLAG 1264 96 Vout+
FLAG 1200 128 Vout-
SYMBOL current 224 224 R0
SYMATTR InstName I1
SYMATTR Value {I_tail}
SYMBOL current 624 224 R0
SYMATTR InstName I2
SYMATTR Value {I_tail}
SYMBOL current 1024 224 R0
SYMATTR InstName I3
SYMATTR Value {I_tail}
SYMBOL mosfet_long_tailed_pair 224 112 R0
SYMATTR InstName X1
SYMBOL mosfet_long_tailed_pair 624 112 R0
SYMATTR InstName X2
SYMBOL mosfet_long_tailed_pair 1024 112 R0
SYMATTR InstName X3
