Version 4.1
SHEET 1 1140 680
WIRE 208 -96 208 -128
WIRE 208 -96 128 -96
WIRE 288 -96 208 -96
WIRE 320 -48 96 -48
WIRE 128 0 128 -96
WIRE 160 0 128 0
WIRE 288 0 288 -96
WIRE 288 0 256 0
WIRE 96 32 96 -48
WIRE 160 32 96 32
WIRE 320 32 320 -48
WIRE 320 32 256 32
WIRE 96 64 96 32
WIRE 160 64 96 64
WIRE 320 64 256 64
WIRE 96 144 96 64
WIRE 96 144 48 144
WIRE 160 144 96 144
WIRE 320 144 320 64
WIRE 320 144 256 144
WIRE 368 144 320 144
WIRE 160 208 112 208
WIRE 304 208 256 208
WIRE 112 288 112 208
WIRE 208 288 112 288
WIRE 304 288 304 208
WIRE 304 288 208 288
WIRE 208 304 208 288
FLAG 208 -128 Vdd
FLAG 160 176 Vin+
FLAG 256 176 Vin-
FLAG 208 304 Vee
FLAG 48 144 Vout-
FLAG 368 144 Vout+
SYMBOL BCM847BS_pair 224 176 R0
WINDOW 0 -35 54 Left 0
SYMATTR InstName npn_pair
SYMBOL BCM857BS_pair 224 32 R0
WINDOW 0 -37 53 Left 0
SYMATTR InstName pnp_pair
