Version 4.1
SHEET 1 880 680
FLAG 160 128 B1
FLAG 288 128 B2
FLAG 224 96 E1
FLAG 352 96 E2
FLAG 224 160 C1
FLAG 352 160 C2
SYMBOL BCM847BS 320 160 R0
SYMATTR InstName U3
SYMBOL BCM847BS 448 160 R0
SYMATTR InstName U4
TEXT 120 32 Left 2 !.import ../models/BCM847BS.lib
