Version 4.1
SHEET 1 1468 680
WIRE 224 -48 80 -48
WIRE 1168 -48 304 -48
WIRE 384 0 128 0
WIRE 1136 0 464 0
WIRE 128 96 128 0
WIRE 128 96 112 96
WIRE 144 96 128 96
WIRE 416 96 384 96
WIRE 544 96 464 96
WIRE 768 96 704 96
WIRE 896 96 848 96
WIRE 944 96 912 96
WIRE 1168 96 1168 -48
WIRE 1168 96 1104 96
WIRE 1200 96 1168 96
WIRE 416 112 416 96
WIRE 480 112 416 112
WIRE 912 112 912 96
WIRE 912 112 880 112
WIRE 80 128 80 -48
WIRE 80 128 64 128
WIRE 144 128 80 128
WIRE 464 128 464 96
WIRE 464 128 384 128
WIRE 480 128 480 112
WIRE 544 128 480 128
WIRE 768 128 704 128
WIRE 880 128 880 112
WIRE 880 128 848 128
WIRE 896 128 896 96
WIRE 944 128 896 128
WIRE 1136 128 1136 0
WIRE 1136 128 1104 128
WIRE 1168 128 1136 128
WIRE 224 224 224 176
WIRE 624 224 624 176
WIRE 1024 224 1024 176
WIRE 224 384 224 352
WIRE 624 384 624 352
WIRE 1024 384 1024 352
FLAG 224 48 Vdd
FLAG 112 96 Vin+
FLAG 64 128 Vin-
FLAG 624 48 Vdd
FLAG 1024 48 Vdd
FLAG 1168 128 Vout-
FLAG 1200 96 Vout+
FLAG 224 384 0
FLAG 176 288 Vdd
FLAG 624 384 0
FLAG 1024 384 0
FLAG 576 288 Vdd
FLAG 976 288 Vdd
SYMBOL long_tailed_pair 224 112 R0
SYMATTR InstName X1
SYMATTR SpiceLine Rc1_p={Rc1_pp} Rc2_p={Rc2_pp}
SYMBOL long_tailed_pair 624 112 R0
SYMATTR InstName X2
SYMATTR SpiceLine Rc1_p={Rc1_pp} Rc2_p={Rc2_pp}
SYMBOL res 400 80 R90
WINDOW 0 0 56 VBottom 0
WINDOW 3 32 56 VTop 0
SYMATTR InstName R_line1
SYMATTR Value {R_line_pp}
SYMBOL res 400 112 R90
WINDOW 0 0 56 VBottom 0
WINDOW 3 32 56 VTop 0
SYMATTR InstName R_line2
SYMATTR Value {R_line_pp}
SYMBOL res 480 -16 R90
WINDOW 0 0 56 VBottom 0
WINDOW 3 32 56 VTop 0
SYMATTR InstName R_line3
SYMATTR Value {R_line_pp}
SYMBOL res 320 -64 R90
WINDOW 0 0 56 VBottom 0
WINDOW 3 32 56 VTop 0
SYMATTR InstName R_line4
SYMATTR Value {R_line_pp}
SYMBOL long_tailed_pair 1024 112 R0
SYMATTR InstName X3
SYMATTR SpiceLine Rc1_p={Rc1_pp} Rc2_p={Rc2_pp}
SYMBOL res 864 112 R90
WINDOW 0 0 56 VBottom 0
WINDOW 3 32 56 VTop 0
SYMATTR InstName R_line5
SYMATTR Value {R_line_pp}
SYMBOL res 864 80 R90
WINDOW 0 0 56 VBottom 0
WINDOW 3 32 56 VTop 0
SYMATTR InstName R_line6
SYMATTR Value {R_line_pp}
SYMBOL current_mirror 224 256 R0
SYMATTR InstName X4
SYMBOL current_mirror 624 256 R0
SYMATTR InstName X5
SYMBOL current_mirror 1024 256 R0
SYMATTR InstName X6
