Version 4.1
SHEET 1 1468 680
WIRE 224 -48 80 -48
WIRE 720 -48 304 -48
WIRE 384 0 128 0
WIRE 736 0 464 0
WIRE 128 96 128 0
WIRE 128 96 112 96
WIRE 144 96 128 96
WIRE 544 96 384 96
WIRE 720 96 720 -48
WIRE 720 96 704 96
WIRE 768 96 720 96
WIRE 80 128 80 -48
WIRE 80 128 64 128
WIRE 144 128 80 128
WIRE 544 128 384 128
WIRE 736 128 736 0
WIRE 736 128 704 128
WIRE 768 128 736 128
WIRE 224 208 224 176
WIRE 624 208 624 176
FLAG 224 48 Vdd
FLAG 224 288 0
FLAG 112 96 Vin+
FLAG 64 128 Vin-
FLAG 624 288 0
FLAG 768 96 Vout+
FLAG 768 128 Vout-
FLAG 624 48 Vdd
SYMBOL long_tailed_pair 224 112 R0
SYMATTR InstName X1
SYMATTR SpiceLine Rc1_p={Rc1_pp} Rc2_p={Rc2_pp}
SYMBOL current 224 208 R0
WINDOW 123 0 0 Left 0
WINDOW 39 0 0 Left 0
SYMATTR InstName I_tail1
SYMATTR Value {I_tail_pp}
SYMBOL long_tailed_pair 624 112 R0
SYMATTR InstName X2
SYMATTR SpiceLine Rc1_p={Rc1_pp} Rc2_p={Rc2_pp}
SYMBOL res 400 80 R90
WINDOW 0 0 56 VBottom 0
WINDOW 3 32 56 VTop 0
SYMATTR InstName R_line1
SYMATTR Value {R_line_pp}
SYMBOL res 400 112 R90
WINDOW 0 0 56 VBottom 0
WINDOW 3 32 56 VTop 0
SYMATTR InstName R_line2
SYMATTR Value {R_line_pp}
SYMBOL res 480 -16 R90
WINDOW 0 0 56 VBottom 0
WINDOW 3 32 56 VTop 0
SYMATTR InstName R_line3
SYMATTR Value {R_line_pp}
SYMBOL res 320 -64 R90
WINDOW 0 0 56 VBottom 0
WINDOW 3 32 56 VTop 0
SYMATTR InstName R_line4
SYMATTR Value {R_line_pp}
SYMBOL current 624 208 R0
WINDOW 123 0 0 Left 0
WINDOW 39 0 0 Left 0
SYMATTR InstName I_tail2
SYMATTR Value {I_tail_pp}
TEXT 744 32 Left 2 !.param Rc1_pp=470 Rc2_pp=470 I_tail_pp=5m R_line_pp=1
