Version 4.1
SHEET 1 880 680
WIRE 208 32 208 -64
WIRE 208 32 0 32
WIRE 432 32 208 32
WIRE 0 144 0 32
WIRE 112 144 80 144
WIRE 160 144 112 144
WIRE 304 144 256 144
WIRE 352 144 304 144
WIRE 432 144 432 32
WIRE 160 208 112 208
WIRE 304 208 256 208
WIRE 112 288 112 208
WIRE 208 288 112 288
WIRE 304 288 304 208
WIRE 304 288 208 288
WIRE 208 400 208 368
FLAG 208 -64 Vcc
FLAG 208 400 Vee
FLAG 160 176 V_in+
FLAG 256 176 V_in-
FLAG 112 144 V_out-
FLAG 304 144 V_out+
SYMBOL res 96 128 R90
WINDOW 0 0 56 VBottom 2
WINDOW 3 32 56 VTop 2
SYMATTR InstName Rc1
SYMBOL res 336 128 M90
WINDOW 0 0 56 VBottom 2
WINDOW 3 32 56 VTop 2
SYMATTR InstName Rc2
SYMBOL res 192 272 R0
SYMATTR InstName Ree
SYMBOL BCM847BS_pair 224 176 R0
SYMATTR InstName X1
TEXT 496 40 Left 2 !.param Rc1=1k\n.param Rc2=1k\n.param Ree=1k
