Version 4.1
SHEET 1 880 680
WIRE 224 208 224 176
FLAG -160 32 0
FLAG -80 32 Vdd
FLAG 224 48 Vdd
FLAG -160 176 0
FLAG -80 176 V_signal
FLAG 144 96 V_signal
FLAG 304 128 V_inverted
FLAG 224 288 0
SYMBOL long_tailed_pair 224 112 R0
SYMATTR InstName X1
SYMATTR SpiceLine Rc1_p=3.3k Rc2_p=3.3k Ree_p=0.001
SYMBOL voltage -64 32 R90
WINDOW 0 -32 56 VBottom 2
WINDOW 3 32 56 VTop 2
WINDOW 123 0 0 Left 0
WINDOW 39 0 0 Left 0
SYMATTR InstName V1
SYMATTR Value 1.8
SYMBOL voltage -64 176 R90
WINDOW 0 -32 56 VBottom 2
WINDOW 3 32 56 VTop 2
WINDOW 123 0 0 Left 0
WINDOW 39 0 0 Left 0
SYMATTR InstName V2
SYMATTR Value SINE(0 1 10)
SYMBOL current 224 208 R0
WINDOW 123 0 0 Left 0
WINDOW 39 0 0 Left 0
SYMATTR InstName I1
SYMATTR Value 5m
TEXT -176 248 Left 2 !.tran 10
