Version 4.1
SHEET 1 1352 680
FLAG 144 48 Vdd
FLAG 224 96 V_osc+
FLAG -32 -48 0
FLAG 48 -48 Vdd
FLAG -32 288 0
FLAG 48 288 small_signal_stage_gain
FLAG 224 128 V_osc-
SYMBOL voltage 64 -48 R90
WINDOW 0 -32 56 VBottom 2
WINDOW 3 32 56 VTop 2
WINDOW 123 0 0 Left 0
WINDOW 39 0 0 Left 0
SYMATTR InstName V1
SYMATTR Value 1.8
SYMBOL bv 64 288 R90
WINDOW 0 -32 56 VBottom 2
WINDOW 3 32 56 VTop 2
SYMATTR InstName B1
SYMATTR Value V={I_tail}*{Rc1_p}/0.025
SYMBOL mosfet_differential_ring_oscillator_3stage 144 112 R0
SYMATTR InstName X1
TEXT 456 -88 Left 2 !.param I_tail=1m\n.param Rc1_p=100 Rc2_p=100
TEXT 488 160 Left 2 !.tran 0 1m 0 0.01n startup uic
TEXT 496 72 Left 2 ;.op
TEXT 488 200 Left 2 !.options reltol=1e-3 abstol=1e-12 vntol=1e-6\n.options method=gear maxord=2\n.options itl1=500 itl2=500 itl4=100\n.options solver=alternate
