Version 4.1
SHEET 1 880 680
WIRE 192 64 192 16
WIRE 192 224 192 192
FLAG 192 224 0
FLAG 144 128 Vdd
FLAG 192 -64 Vdd
FLAG -224 144 0
FLAG -144 144 Vdd
SYMBOL current_mirror 192 96 R0
SYMATTR InstName X1
SYMBOL res 176 -80 R0
SYMATTR InstName R1
SYMATTR Value 1k
SYMBOL voltage -128 144 R90
WINDOW 0 -32 56 VBottom 2
WINDOW 3 32 56 VTop 2
WINDOW 123 0 0 Left 0
WINDOW 39 0 0 Left 0
SYMATTR InstName V1
SYMATTR Value 1.8
TEXT 304 96 Left 2 !.param R_mirror=5k
TEXT -32 248 Left 2 !.tran 10ns
