Version 4.1
SHEET 1 1352 680
FLAG 144 48 Vdd
FLAG 224 96 V_osc
FLAG -32 -48 0
FLAG 48 -48 Vdd
FLAG 224 128 0
FLAG 64 128 0
FLAG 64 96 0
SYMBOL differential_ring_oscillator_3stage 144 112 R0
SYMATTR InstName X1
SYMBOL voltage 64 -48 R90
WINDOW 0 -32 56 VBottom 2
WINDOW 3 32 56 VTop 2
WINDOW 123 0 0 Left 0
WINDOW 39 0 0 Left 0
SYMATTR InstName V1
SYMATTR Value 1.8
TEXT 368 -48 Left 2 !.tran 0 10n 0 0.1n startup uic
TEXT 408 32 Left 2 !.param Rc1_pp=4.7k Rc2_pp=4.7k R_mirror=2.2k R_line_pp=0.1 I_tail=5m
TEXT 448 104 Left 2 ;.op
