Version 4.1
SHEET 1 1096 680
WIRE 224 208 224 176
FLAG 224 48 Vdd
FLAG -160 176 0
FLAG -80 176 V_signal
FLAG 144 96 V_signal
FLAG 304 128 V_inverted
FLAG 224 288 0
FLAG -160 336 0
FLAG -80 336 V_offset
FLAG 144 128 V_offset
FLAG 304 96 V_not_inverted
FLAG -160 48 0
FLAG -80 48 Vdd
FLAG -160 464 0
FLAG -80 464 gain
SYMBOL long_tailed_pair 224 112 R0
SYMATTR InstName X1
SYMBOL voltage -64 176 R90
WINDOW 0 -32 56 VBottom 2
WINDOW 3 32 56 VTop 2
WINDOW 123 0 0 Left 0
WINDOW 39 0 0 Left 0
SYMATTR InstName V2
SYMATTR Value SINE(0.66 0.01 10)
SYMBOL current 224 208 R0
WINDOW 123 0 0 Left 0
WINDOW 39 0 0 Left 0
SYMATTR InstName I1
SYMATTR Value {I_bias}
SYMBOL voltage -64 336 R90
WINDOW 0 -32 56 VBottom 2
WINDOW 3 32 56 VTop 2
WINDOW 123 0 0 Left 0
WINDOW 39 0 0 Left 0
SYMATTR InstName V1
SYMATTR Value 0.66
SYMBOL voltage -64 48 M270
WINDOW 0 32 56 VTop 2
WINDOW 3 -32 56 VBottom 2
SYMATTR InstName V3
SYMATTR Value 1.8
SYMBOL bv -64 464 R90
WINDOW 0 -32 56 VBottom 2
WINDOW 3 32 56 VTop 2
SYMATTR InstName B1
SYMATTR Value V ={I_bias}*{Rc1_p}/0.025
TEXT 520 272 Left 2 !.tran 10
TEXT 480 64 Left 2 !.param Rc1_p=400 Rc2_p=400 I_bias=3m
TEXT 560 224 Left 2 ;.op
