Version 4.1
SHEET 1 1180 680
FLAG 144 48 Vdd
FLAG 224 96 V_osc
FLAG -96 368 0
FLAG -16 368 startup_noise+
FLAG -96 496 0
FLAG -16 496 startup_noise-
FLAG 64 96 startup_noise+
FLAG 64 128 startup_noise-
FLAG -32 -48 0
FLAG 48 -48 Vdd
SYMBOL differential_ring_oscillator_3stage 144 112 R0
SYMATTR InstName X1
SYMBOL voltage 0 368 R90
WINDOW 0 -32 56 VBottom 2
WINDOW 3 32 56 VTop 2
WINDOW 123 0 0 Left 0
WINDOW 39 0 0 Left 0
SYMATTR InstName V2
SYMATTR Value PULSE(0 0.5 10p 10p 10p 1n 100n)
SYMBOL voltage 0 496 R90
WINDOW 0 -32 56 VBottom 2
WINDOW 3 32 56 VTop 2
WINDOW 123 0 0 Left 0
WINDOW 39 0 0 Left 0
SYMATTR InstName V3
SYMATTR Value PULSE(0 -1.2 10p 10p 10p 1n 100n)
SYMBOL voltage 64 -48 R90
WINDOW 0 -32 56 VBottom 2
WINDOW 3 32 56 VTop 2
WINDOW 123 0 0 Left 0
WINDOW 39 0 0 Left 0
SYMATTR InstName V1
SYMATTR Value 1.8
TEXT 368 -48 Left 2 !.tran 0 50n 0 1p
TEXT 408 32 Left 2 !.param Rc1_pp=1k Rc2_pp=1k R_mirror=0.5k R_line_pp=50
