Version 4.1
SHEET 1 880 680
FLAG -160 32 0
FLAG -80 32 Vdd
FLAG -160 176 0
FLAG -80 176 V_signal
FLAG 224 48 Vdd
SYMBOL voltage -64 32 R90
WINDOW 0 -32 56 VBottom 2
WINDOW 3 32 56 VTop 2
WINDOW 123 0 0 Left 0
WINDOW 39 0 0 Left 0
SYMATTR InstName V1
SYMATTR Value 1.8
SYMBOL voltage -64 176 R90
WINDOW 0 -32 56 VBottom 2
WINDOW 3 32 56 VTop 2
WINDOW 123 0 0 Left 0
WINDOW 39 0 0 Left 0
SYMATTR InstName V2
SYMATTR Value PULSE(0 1 0)
SYMBOL differential_ring_oscillator 224 112 R0
SYMATTR InstName X1
SYMATTR SpiceLine Rc1_pp=470 Rc2_pp=470 I_tail_pp=5m R_line_pp=1
TEXT -176 248 Left 2 !.tran 10
