Version 4.1
SHEET 1 880 680
WIRE 144 64 144 -32
WIRE 144 64 64 64
WIRE 32 80 -80 80
WIRE 144 96 64 96
WIRE -80 128 -80 80
WIRE 144 208 144 96
FLAG 144 -112 0
FLAG 144 288 0
FLAG -80 208 0
SYMBOL voltage -80 112 R0
WINDOW 123 0 0 Left 0
WINDOW 39 24 124 Left 2
SYMATTR SpiceLine Rser=20
SYMATTR InstName V1
SYMATTR Value 1.8
SYMBOL current 144 -112 R0
WINDOW 123 0 0 Left 0
WINDOW 39 0 0 Left 0
SYMATTR InstName I1
SYMATTR Value 1m
SYMBOL res 128 192 R0
SYMATTR InstName R1
SYMATTR Value 100
SYMBOL sym\\BCM847BS\\BCM847BS 48 32 R270
SYMATTR InstName U1
TEXT 256 48 Left 2 !.include models/lib/BCM847BS.lib
TEXT 152 192 Left 2 !.tran 10
